50
Lattice="9.079280264129297 -5.241924904543105 0.0 0.0 10.48384980908621 0.0 0.0 0.0 26.177667744121795" Properties=species:S:1:pos:R:3 pbc="T T T"
Cu       0.00000000       0.00000000      10.61776677
Cu       3.02642675       0.00000000      10.61776677
Cu       1.51321338       2.62096245      10.61776677
Cu       4.53964013       2.62096245      10.61776677
O        6.05285351       3.49461660      11.23553355
O        3.02642675       1.74730830      10.00000000
Cu       6.05285351       3.49461660      13.08883387
Cu       3.02642675       3.49461660      13.08883387
Cu       4.53964013       0.87365415      13.08883387
Cu       1.51321338       0.87365415      13.08883387
O        3.02642675       1.74730830      13.70660065
O        0.00000000       0.00000000      12.47106710
Cu       6.05285351       1.74730830      15.55990097
Cu       4.53964013       4.36827075      15.55990097
Cu       7.56606689       4.36827075      15.55990097
O        6.05285351       3.49461660      14.94213420
Cu       3.02642675       5.24192490      10.61776677
Cu       6.05285351       5.24192490      10.61776677
Cu       4.53964013      -2.62096245      10.61776677
Cu       7.56606689      -2.62096245      10.61776677
O        0.00000000       3.49461660      11.23553355
O        6.05285351      -3.49461660      10.00000000
Cu      -0.00000000       3.49461660      13.08883387
Cu       6.05285351      -1.74730830      13.08883387
Cu       7.56606689      -4.36827075      13.08883387
Cu       4.53964013       6.11557906      13.08883387
O        6.05285351      -3.49461660      13.70660065
O        3.02642675       5.24192490      12.47106710
Cu       0.00000000       1.74730830      15.55990097
Cu       7.56606689      -0.87365415      15.55990097
Cu       1.51321338       4.36827075      15.55990097
O        6.05285351       0.00000000      16.17766774
O        0.00000000       3.49461660      14.94213420
Cu       6.05285351      -0.00000000      10.61776677
Cu       0.00000000       5.24192490      10.61776677
Cu       7.56606689       2.62096245      10.61776677
Cu       1.51321338       7.86288736      10.61776677
O        3.02642675      -1.74730830      11.23553355
O        0.00000000       6.98923321      10.00000000
Cu       3.02642675      -1.74730830      13.08883387
Cu       0.00000000       8.73654151      13.08883387
Cu       1.51321338       6.11557906      13.08883387
Cu       7.56606689       0.87365415      13.08883387
O        0.00000000       6.98923321      13.70660065
O        6.05285351      -0.00000000      12.47106710
Cu       3.02642675       6.98923321      15.55990097
Cu       1.51321338      -0.87365415      15.55990097
Cu       4.53964013      -0.87365415      15.55990097
O        0.00000000      -0.00000000      16.17766774
O        3.02642675      -1.74730830      14.94213420
