276
Lattice="17.120055048157372 0.0 0.0 0.0 17.120055048157372 0.0 0.0 0.0 31.770037845608194" Properties=species:S:1:pos:R:3 pbc="T T T"
Cu       3.78998968       3.78998968      13.21001032
Cu       3.78998968       1.64998280      11.07000344
Cu       1.64998280       1.64998280      13.21001032
Cu       1.64998280       3.78998968      11.07000344
O        2.71998624       2.71998624      12.14000688
O        0.57997936       0.57997936      10.00000000
Cu       3.78998968       3.78998968      17.49002408
Cu       3.78998968       1.64998280      15.35001720
Cu       1.64998280       1.64998280      17.49002408
Cu       1.64998280       3.78998968      15.35001720
O        2.71998624       2.71998624      16.42002064
O        0.57997936       0.57997936      14.28001376
Cu       3.78998968       3.78998968      21.77003785
Cu       3.78998968       1.64998280      19.63003096
Cu       1.64998280       1.64998280      21.77003785
Cu       1.64998280       3.78998968      19.63003096
O        0.57997936       0.57997936      18.56002752
Cu       3.78998968       8.07000344      13.21001032
Cu       3.78998968       5.92999656      11.07000344
Cu       1.64998280       5.92999656      13.21001032
Cu       1.64998280       8.07000344      11.07000344
O        2.71998624       7.00000000      12.14000688
O        0.57997936       4.85999312      10.00000000
Cu       3.78998968       8.07000344      17.49002408
Cu       3.78998968       5.92999656      15.35001720
Cu       1.64998280       5.92999656      17.49002408
Cu       1.64998280       8.07000344      15.35001720
O        2.71998624       7.00000000      16.42002064
O        0.57997936       4.85999312      14.28001376
Cu       3.78998968       8.07000344      21.77003785
Cu       3.78998968       5.92999656      19.63003096
Cu       1.64998280       5.92999656      21.77003785
Cu       1.64998280       8.07000344      19.63003096
O        0.57997936       4.85999312      18.56002752
Cu       3.78998968      12.35001720      13.21001032
Cu       3.78998968      10.21001032      11.07000344
Cu       1.64998280      10.21001032      13.21001032
Cu       1.64998280      12.35001720      11.07000344
O        2.71998624      11.28001376      12.14000688
O        0.57997936       9.14000688      10.00000000
Cu       3.78998968      12.35001720      17.49002408
Cu       3.78998968      10.21001032      15.35001720
Cu       1.64998280      10.21001032      17.49002408
Cu       1.64998280      12.35001720      15.35001720
O        2.71998624      11.28001376      16.42002064
O        0.57997936       9.14000688      14.28001376
Cu       3.78998968      12.35001720      21.77003785
Cu       3.78998968      10.21001032      19.63003096
Cu       1.64998280      10.21001032      21.77003785
Cu       1.64998280      12.35001720      19.63003096
O        0.57997936       9.14000688      18.56002752
Cu       3.78998968      16.63003096      13.21001032
Cu       3.78998968      14.49002408      11.07000344
Cu       1.64998280      14.49002408      13.21001032
Cu       1.64998280      16.63003096      11.07000344
O        2.71998624      15.56002752      12.14000688
O        0.57997936      13.42002064      10.00000000
Cu       3.78998968      16.63003096      17.49002408
Cu       3.78998968      14.49002408      15.35001720
Cu       1.64998280      14.49002408      17.49002408
Cu       1.64998280      16.63003096      15.35001720
O        2.71998624      15.56002752      16.42002064
O        0.57997936      13.42002064      14.28001376
Cu       3.78998968      16.63003096      21.77003785
Cu       3.78998968      14.49002408      19.63003096
Cu       1.64998280      14.49002408      21.77003785
Cu       1.64998280      16.63003096      19.63003096
O        0.57997936      13.42002064      18.56002752
Cu       8.07000344       3.78998968      13.21001032
Cu       8.07000344       1.64998280      11.07000344
Cu       5.92999656       1.64998280      13.21001032
Cu       5.92999656       3.78998968      11.07000344
O        7.00000000       2.71998624      12.14000688
O        4.85999312       0.57997936      10.00000000
Cu       8.07000344       3.78998968      17.49002408
Cu       8.07000344       1.64998280      15.35001720
Cu       5.92999656       1.64998280      17.49002408
Cu       5.92999656       3.78998968      15.35001720
O        7.00000000       2.71998624      16.42002064
O        4.85999312       0.57997936      14.28001376
Cu       8.07000344       3.78998968      21.77003785
Cu       8.07000344       1.64998280      19.63003096
Cu       5.92999656       1.64998280      21.77003785
Cu       5.92999656       3.78998968      19.63003096
O        4.85999312       0.57997936      18.56002752
Cu       8.07000344       8.07000344      13.21001032
Cu       8.07000344       5.92999656      11.07000344
Cu       5.92999656       5.92999656      13.21001032
Cu       5.92999656       8.07000344      11.07000344
O        7.00000000       7.00000000      12.14000688
O        4.85999312       4.85999312      10.00000000
Cu       8.07000344       8.07000344      17.49002408
Cu       8.07000344       5.92999656      15.35001720
Cu       5.92999656       5.92999656      17.49002408
Cu       5.92999656       8.07000344      15.35001720
O        7.00000000       7.00000000      16.42002064
O        4.85999312       4.85999312      14.28001376
Cu       8.07000344       8.07000344      21.77003785
Cu       8.07000344       5.92999656      19.63003096
Cu       5.92999656       5.92999656      21.77003785
Cu       5.92999656       8.07000344      19.63003096
O        4.85999312       4.85999312      18.56002752
Cu       8.07000344      12.35001720      13.21001032
Cu       8.07000344      10.21001032      11.07000344
Cu       5.92999656      10.21001032      13.21001032
Cu       5.92999656      12.35001720      11.07000344
O        7.00000000      11.28001376      12.14000688
O        4.85999312       9.14000688      10.00000000
Cu       8.07000344      12.35001720      17.49002408
Cu       8.07000344      10.21001032      15.35001720
Cu       5.92999656      10.21001032      17.49002408
Cu       5.92999656      12.35001720      15.35001720
O        7.00000000      11.28001376      16.42002064
O        4.85999312       9.14000688      14.28001376
Cu       8.07000344      12.35001720      21.77003785
Cu       8.07000344      10.21001032      19.63003096
Cu       5.92999656      10.21001032      21.77003785
Cu       5.92999656      12.35001720      19.63003096
O        4.85999312       9.14000688      18.56002752
Cu       8.07000344      16.63003096      13.21001032
Cu       8.07000344      14.49002408      11.07000344
Cu       5.92999656      14.49002408      13.21001032
Cu       5.92999656      16.63003096      11.07000344
O        7.00000000      15.56002752      12.14000688
O        4.85999312      13.42002064      10.00000000
Cu       8.07000344      16.63003096      17.49002408
Cu       8.07000344      14.49002408      15.35001720
Cu       5.92999656      14.49002408      17.49002408
Cu       5.92999656      16.63003096      15.35001720
O        7.00000000      15.56002752      16.42002064
O        4.85999312      13.42002064      14.28001376
Cu       8.07000344      16.63003096      21.77003785
Cu       8.07000344      14.49002408      19.63003096
Cu       5.92999656      14.49002408      21.77003785
Cu       5.92999656      16.63003096      19.63003096
O        4.85999312      13.42002064      18.56002752
Cu      12.35001720       3.78998968      13.21001032
Cu      12.35001720       1.64998280      11.07000344
Cu      10.21001032       1.64998280      13.21001032
Cu      10.21001032       3.78998968      11.07000344
O       11.28001376       2.71998624      12.14000688
O        9.14000688       0.57997936      10.00000000
Cu      12.35001720       3.78998968      17.49002408
Cu      12.35001720       1.64998280      15.35001720
Cu      10.21001032       1.64998280      17.49002408
Cu      10.21001032       3.78998968      15.35001720
O       11.28001376       2.71998624      16.42002064
O        9.14000688       0.57997936      14.28001376
Cu      12.35001720       3.78998968      21.77003785
Cu      12.35001720       1.64998280      19.63003096
Cu      10.21001032       1.64998280      21.77003785
Cu      10.21001032       3.78998968      19.63003096
O        9.14000688       0.57997936      18.56002752
Cu      12.35001720       8.07000344      13.21001032
Cu      12.35001720       5.92999656      11.07000344
Cu      10.21001032       5.92999656      13.21001032
Cu      10.21001032       8.07000344      11.07000344
O       11.28001376       7.00000000      12.14000688
O        9.14000688       4.85999312      10.00000000
Cu      12.35001720       8.07000344      17.49002408
Cu      12.35001720       5.92999656      15.35001720
Cu      10.21001032       5.92999656      17.49002408
Cu      10.21001032       8.07000344      15.35001720
O       11.28001376       7.00000000      16.42002064
O        9.14000688       4.85999312      14.28001376
Cu      12.35001720       8.07000344      21.77003785
Cu      12.35001720       5.92999656      19.63003096
Cu      10.21001032       5.92999656      21.77003785
Cu      10.21001032       8.07000344      19.63003096
O        9.14000688       4.85999312      18.56002752
Cu      12.35001720      12.35001720      13.21001032
Cu      12.35001720      10.21001032      11.07000344
Cu      10.21001032      10.21001032      13.21001032
Cu      10.21001032      12.35001720      11.07000344
O       11.28001376      11.28001376      12.14000688
O        9.14000688       9.14000688      10.00000000
Cu      12.35001720      12.35001720      17.49002408
Cu      12.35001720      10.21001032      15.35001720
Cu      10.21001032      10.21001032      17.49002408
Cu      10.21001032      12.35001720      15.35001720
O       11.28001376      11.28001376      16.42002064
O        9.14000688       9.14000688      14.28001376
Cu      12.35001720      12.35001720      21.77003785
Cu      12.35001720      10.21001032      19.63003096
Cu      10.21001032      10.21001032      21.77003785
Cu      10.21001032      12.35001720      19.63003096
O        9.14000688       9.14000688      18.56002752
Cu      12.35001720      16.63003096      13.21001032
Cu      12.35001720      14.49002408      11.07000344
Cu      10.21001032      14.49002408      13.21001032
Cu      10.21001032      16.63003096      11.07000344
O       11.28001376      15.56002752      12.14000688
O        9.14000688      13.42002064      10.00000000
Cu      12.35001720      16.63003096      17.49002408
Cu      12.35001720      14.49002408      15.35001720
Cu      10.21001032      14.49002408      17.49002408
Cu      10.21001032      16.63003096      15.35001720
O       11.28001376      15.56002752      16.42002064
O        9.14000688      13.42002064      14.28001376
Cu      12.35001720      16.63003096      21.77003785
Cu      12.35001720      14.49002408      19.63003096
Cu      10.21001032      14.49002408      21.77003785
Cu      10.21001032      16.63003096      19.63003096
O        9.14000688      13.42002064      18.56002752
Cu      16.63003096       3.78998968      13.21001032
Cu      16.63003096       1.64998280      11.07000344
Cu      14.49002408       1.64998280      13.21001032
Cu      14.49002408       3.78998968      11.07000344
O       15.56002752       2.71998624      12.14000688
O       13.42002064       0.57997936      10.00000000
Cu      16.63003096       3.78998968      17.49002408
Cu      16.63003096       1.64998280      15.35001720
Cu      14.49002408       1.64998280      17.49002408
Cu      14.49002408       3.78998968      15.35001720
O       15.56002752       2.71998624      16.42002064
O       13.42002064       0.57997936      14.28001376
Cu      16.63003096       3.78998968      21.77003785
Cu      16.63003096       1.64998280      19.63003096
Cu      14.49002408       1.64998280      21.77003785
Cu      14.49002408       3.78998968      19.63003096
O       13.42002064       0.57997936      18.56002752
Cu      16.63003096       8.07000344      13.21001032
Cu      16.63003096       5.92999656      11.07000344
Cu      14.49002408       5.92999656      13.21001032
Cu      14.49002408       8.07000344      11.07000344
O       15.56002752       7.00000000      12.14000688
O       13.42002064       4.85999312      10.00000000
Cu      16.63003096       8.07000344      17.49002408
Cu      16.63003096       5.92999656      15.35001720
Cu      14.49002408       5.92999656      17.49002408
Cu      14.49002408       8.07000344      15.35001720
O       15.56002752       7.00000000      16.42002064
O       13.42002064       4.85999312      14.28001376
Cu      16.63003096       8.07000344      21.77003785
Cu      16.63003096       5.92999656      19.63003096
Cu      14.49002408       5.92999656      21.77003785
Cu      14.49002408       8.07000344      19.63003096
O       13.42002064       4.85999312      18.56002752
Cu      16.63003096      12.35001720      13.21001032
Cu      16.63003096      10.21001032      11.07000344
Cu      14.49002408      10.21001032      13.21001032
Cu      14.49002408      12.35001720      11.07000344
O       15.56002752      11.28001376      12.14000688
O       13.42002064       9.14000688      10.00000000
Cu      16.63003096      12.35001720      17.49002408
Cu      16.63003096      10.21001032      15.35001720
Cu      14.49002408      10.21001032      17.49002408
Cu      14.49002408      12.35001720      15.35001720
O       15.56002752      11.28001376      16.42002064
O       13.42002064       9.14000688      14.28001376
Cu      16.63003096      12.35001720      21.77003785
Cu      16.63003096      10.21001032      19.63003096
Cu      14.49002408      10.21001032      21.77003785
Cu      14.49002408      12.35001720      19.63003096
O       13.42002064       9.14000688      18.56002752
Cu      16.63003096      16.63003096      13.21001032
Cu      16.63003096      14.49002408      11.07000344
Cu      14.49002408      14.49002408      13.21001032
Cu      14.49002408      16.63003096      11.07000344
O       15.56002752      15.56002752      12.14000688
O       13.42002064      13.42002064      10.00000000
Cu      16.63003096      16.63003096      17.49002408
Cu      16.63003096      14.49002408      15.35001720
Cu      14.49002408      14.49002408      17.49002408
Cu      14.49002408      16.63003096      15.35001720
O       15.56002752      15.56002752      16.42002064
O       13.42002064      13.42002064      14.28001376
Cu      16.63003096      16.63003096      21.77003785
Cu      16.63003096      14.49002408      19.63003096
Cu      14.49002408      14.49002408      21.77003785
Cu      14.49002408      16.63003096      19.63003096
O       13.42002064      13.42002064      18.56002752
O       10.06235861       8.76235861      23.79060685
O        8.66235861      10.06235861      23.79060685
O        7.96235861       7.79235861      23.79060685
N        8.76235861       8.76235861      23.79060685
